*
*
*
*                       LINUX           Wed May 21 10:49:38 2025
*
*
*
*  PROGRAM  advgen
*
*  Name           : advgen - Quantus QRC - (64-bit)
*  Version        : 15.2.0-p076
*  Build Date     : Tue Jan 26 10:13:56 PST 2016
*
*  HSPICE LIBRARY
*
*
*

*
.SUBCKT dff-standalone_PT VDD GND CLK D Q QNOT RST
*
*
*  caps2d version: 9
*
*
*       TRANSISTOR CARDS
*
*
MavD1_1	avC8#3	CLK#3	D#2	GND#2	N_12_HSL130E#20ivpcell	L=1.2e-07
+ W=2.8e-07
+ AD=9.52e-14	AS=9.52e-14	PD=1.24e-06	PS=1.24e-06	effW=2.8e-07
MavD1_2	GND#11	avC8#6	avC9#7	GND#2	N_12_HSL130E#20ivpcell	L=1.2e-07
+ W=2.8e-07
+ AD=5.6e-14	AS=9.52e-14	PD=6.8e-07	PS=1.24e-06	effW=2.8e-07
MavD1_3	avC12#8	avC9#3	GND#11	GND#2	N_12_HSL130E#20ivpcell
+ L=1.2e-07	W=2.8e-07
+ AD=9.52e-14	AS=5.6e-14	PD=1.24e-06	PS=6.8e-07
+ effW=2.8e-07
MavD1_4	Q#1	CLK#6	avC10#3	GND#2	N_12_HSL130E#20ivpcell
+ L=1.2e-07	W=2.8e-07
+ AD=9.52e-14	AS=9.52e-14	PD=1.24e-06	PS=1.24e-06
+ effW=2.8e-07
MavD1_5	GND#18	RST#3	avC8#8	GND#2	N_12_HSL130E#20ivpcell	L=1.2e-07
+ W=2.8e-07
+ AD=5.6e-14	AS=9.52e-14	PD=6.8e-07	PS=1.24e-06	effW=2.8e-07
MavD1_6	avC10#4	RST#1	GND#18	GND#2	N_12_HSL130E#20ivpcell
+ L=1.2e-07	W=2.8e-07
+ AD=9.52e-14	AS=5.6e-14	PD=1.24e-06	PS=6.8e-07
+ effW=2.8e-07
MavD1_7	avC11#3	avC10#8	GND#19	GND#2	N_12_HSL130E#20ivpcell
+ L=1.2e-07	W=2.8e-07
+ AD=9.52e-14	AS=9.52e-14	PD=1.24e-06	PS=1.24e-06
+ effW=2.8e-07
MavD1_8	GND#32	avC11#6	Q#8	GND#2	N_12_HSL130E#20ivpcell
+ L=1.2e-07	W=2.8e-07
+ AD=5.6e-14	AS=9.52e-14	PD=6.8e-07	PS=1.24e-06
+ effW=2.8e-07
MavD1_9	QNOT#1	Q#5	GND#32	GND#2	N_12_HSL130E#20ivpcell	L=1.2e-07
+ W=2.8e-07
+ AD=9.52e-14	AS=5.6e-14	PD=1.24e-06	PS=6.8e-07	effW=2.8e-07
MavD2_1	avC8	CLK#1	avC12#2	VDD#8	P_12_HSL130E#20ivpcell
+ L=1.2e-07	W=2.8e-07
+ AD=9.52e-14	AS=9.52e-14	PD=1.24e-06	PS=1.24e-06
+ effW=2.8e-07
MavD2_2	VDD#2	avC8#4	avC9#5	VDD#8	P_12_HSL130E#20ivpcell	L=1.2e-07
+ W=2.8e-07
+ AD=5.6e-14	AS=9.52e-14	PD=6.8e-07	PS=1.24e-06	effW=2.8e-07
MavD2_3	avC12#6	avC9	VDD#2	VDD#8	P_12_HSL130E#20ivpcell
+ L=1.2e-07	W=2.8e-07
+ AD=9.52e-14	AS=5.6e-14	PD=1.24e-06	PS=6.8e-07
+ effW=2.8e-07
MavD2_4	avC10#5	CLK#4	avC12#4	VDD#8	P_12_HSL130E#20ivpcell
+ L=1.2e-07	W=2.8e-07
+ AD=9.52e-14	AS=9.52e-14	PD=1.24e-06	PS=1.24e-06
+ effW=2.8e-07
MavD2_5	avC11	avC10#6	VDD#12	VDD#8	P_12_HSL130E#20ivpcell
+ L=1.2e-07	W=2.8e-07
+ AD=9.52e-14	AS=9.52e-14	PD=1.24e-06	PS=1.24e-06
+ effW=2.8e-07
MavD2_6	VDD#24	avC11#4	Q#6	VDD#8	P_12_HSL130E#20ivpcell
+ L=1.2e-07	W=2.8e-07
+ AD=5.6e-14	AS=9.52e-14	PD=6.8e-07	PS=1.24e-06
+ effW=2.8e-07
MavD2_7	QNOT#2	Q#3	VDD#24	VDD#8	P_12_HSL130E#20ivpcell	L=1.2e-07
+ W=2.8e-07
+ AD=9.52e-14	AS=5.6e-14	PD=1.24e-06	PS=6.8e-07	effW=2.8e-07
*
*
*       RESISTOR AND CAP/DIODE CARDS
*
Rb6	VDD#7	VDD	1.400E-03	$me6	$W=5.7e-07
+ $X=4.9495 $Y=-1.485
Rb7	VDD	VDD#7	    0.4745	$me6	$W=2.5e-07
+ $X=4.6095 $Y=-1.3
Rb18	GND	GND#9	1.094E-02	$me6	$W=2e-07	$X=0.26 $Y=-2.7
Rc1	GND#9	GND#6	    1.2000	$me5	$W=6.8e-07
+ $X=0.26 $Y=-2.67
Rc2	VDD#7	VDD#4	    2.4000	$me5	$W=3.2e-07	$X=2.4 $Y=-1.64
Rc3	GND#14	GND	    1.2000	$me5	$W=3.2e-07	$X=2.4 $Y=-2.6
Rc4	GND	GND#24	    2.4000	$me5	$W=3.2e-07	$X=4.92 $Y=-2.6
Rc5	VDD#17	VDD#7	    0.6000	$me5	$W=6.8e-07
+ $X=4.95 $Y=-1.66
Rc6	VDD#7	VDD#16	    2.4000	$me5	$W=3.2e-07
+ $X=5.92 $Y=-1.64
Rc7	GND#27	GND	    1.2000	$me5	$W=3.2e-07
+ $X=5.92 $Y=-2.64
Rc8	VDD#7	VDD#26	    2.4000	$me5	$W=3.2e-07
+ $X=7.44 $Y=-1.64
Rc9	GND#35	GND	    1.2000	$me5	$W=3.2e-07	$X=7.44 $Y=-2.6
Rd5	GND#14	GND#13	    1.2000	$me4	$W=3.2e-07	$X=2.4 $Y=-2.6
Rd7	GND#21	GND#24	    1.2000	$me4	$W=3.2e-07	$X=4.92 $Y=-2.6
Rd9	VDD#17	VDD#15	    0.6000	$me4	$W=6.8e-07
+ $X=4.95 $Y=-1.66
Rd13	GND#27	GND#26	    1.2000	$me4	$W=3.2e-07
+ $X=5.92 $Y=-2.64
Rd17	GND#35	GND#34	    1.2000	$me4	$W=3.2e-07	$X=7.44 $Y=-2.6
Re1	GND#6	GND#5	    0.6000	$me3	$W=6.8e-07
+ $X=0.26 $Y=-2.67
Re2	VDD#4	VDD#3	    1.2000	$me3	$W=3.2e-07	$X=2.4 $Y=-1.64
Re3	GND#12	GND#13	    1.2000	$me3	$W=3.2e-07	$X=2.4 $Y=-2.6
Re5	VDD#13	VDD#15	    0.6000	$me3	$W=6.8e-07
+ $X=4.95 $Y=-1.66
Re6	VDD#16	VDD#14	    1.2000	$me3	$W=3.2e-07
+ $X=5.92 $Y=-1.64
Re7	GND#22	GND#26	    1.2000	$me3	$W=3.2e-07
+ $X=5.92 $Y=-2.64
Re8	VDD#26	VDD#25	    1.2000	$me3	$W=3.2e-07
+ $X=7.44 $Y=-1.64
Re9	GND#33	GND#34	    1.2000	$me3	$W=3.2e-07	$X=7.44 $Y=-2.6
Rf1	GND#5	GND#1	    1.2000	$me2	$W=6.8e-07
+ $X=0.26 $Y=-2.67
Rf2	VDD#3	VDD#1	    1.2000	$me2	$W=3.2e-07	$X=2.4 $Y=-1.64
Rf3	GND#10	GND#12	    1.2000	$me2	$W=3.2e-07	$X=2.4 $Y=-2.6
Rf4	avC12#5	avC12#9	    2.1381	$me2	$W=2.05e-07
+ $X=2.95 $Y=-1.87
Rf5	avC12	avC12#9	    1.2000	$me2	$W=2.5e-07
+ $X=0.9 $Y=-1.68
Rf6	GND#21	GND#17	    1.2000	$me2	$W=3.2e-07	$X=4.92 $Y=-2.6
Rf7	VDD#10	VDD#13	    1.2000	$me2	$W=6.8e-07
+ $X=4.95 $Y=-1.66
Rf8	VDD#14	VDD#11	    1.2000	$me2	$W=3.2e-07
+ $X=5.92 $Y=-1.64
Rf9	GND#20	GND#22	    1.2000	$me2	$W=3.2e-07
+ $X=5.92 $Y=-2.64
Rf10	Q#10	Q	    0.1918	$me2	$W=2.5e-07
+ $X=6.94 $Y=-2.905
Rf11	Q	Q#2	    1.1703	$me2	$W=2.05e-07
+ $X=5.6775 $Y=-3.17
Rf12	VDD#25	VDD#23	    1.2000	$me2	$W=3.2e-07
+ $X=7.44 $Y=-1.64
Rf13	GND#31	GND#33	    1.2000	$me2	$W=3.2e-07	$X=7.44 $Y=-2.6
Rg1	GND#1	GND#3	2.764E-03	$me1	$W=3.18e-07
+ $X=0.265 $Y=-2.66
Rg3	GND#2	GND#3	    5.0000	$me1	$W=0.002
+ $X=0.29 $Y=-2.66
Rg4	D#1	D#3	1.129E-02	$me1	$W=7.01e-07
+ $X=0.8745 $Y=-2.62
Rg5	D	D#4	1.129E-02	$me1	$W=7.01e-07
+ $X=0.745 $Y=-2.37
Rg6	D#1	D#4	5.343E-02	$me1	$W=4.08e-07
+ $X=0.79 $Y=-2.495
Rg7	D#2	D#3	   10.0000	$me1	$W=4.08e-07
+ $X=0.88 $Y=-2.62
Rg8	avC12	avC12#3	5.644E-03	$me1	$W=3.115e-07
+ $X=0.9 $Y=-1.68
Rg9	avC12#2	avC12#3	   10.0000	$me1	$W=3.115e-07
+ $X=0.88 $Y=-1.66
Rg10	avC8	avC8#2	   10.1756	$me1	$W=1.95e-07	$X=1.46 $Y=-1.9
Rg11	avC8#2	avC8#3	   10.1741	$me1	$W=1.975e-07
+ $X=1.46 $Y=-2.38
Rg12	VDD#1	VDD#2	   11.2059	$me1	$W=3.005e-07	$X=2.4 $Y=-1.64
Rg13	GND#10	GND#11	   11.2059	$me1	$W=3.005e-07	$X=2.4 $Y=-2.6
Rg14	avC9#2	avC9#4	    7.1958	$me1	$W=1.93e-07
+ $X=2.24 $Y=-2.14
Rg15	avC9#4	avC9#6	    0.2192	$me1	$W=1.93e-07	$X=2 $Y=-1.93
Rg16	avC9#4	avC9#8	    0.2188	$me1	$W=1.93e-07	$X=2 $Y=-2.35
Rg17	avC9#5	avC9#6	   10.0000	$me1	$W=1.93e-07
+ $X=1.88 $Y=-1.66
Rg18	avC9#7	avC9#8	   10.0000	$me1	$W=1.93e-07
+ $X=1.88 $Y=-2.62
Rg19	avC12#4	avC12#5	   10.1391	$me1	$W=2.825e-07
+ $X=3.18 $Y=-1.66
Rg20	avC12#5	avC12#7	5.699E-03	$me1	$W=3.2e-07
+ $X=2.94 $Y=-1.64
Rg21	avC12#7	avC12#8	   10.4077	$me1	$W=1.93e-07
+ $X=2.96 $Y=-2.14
Rg22	avC12#6	avC12#7	   10.0000	$me1	$W=2.78e-07
+ $X=2.92 $Y=-1.66
Rg23	CLK#5	CLK	    1.0881	$me1	$W=1.93e-07	$X=2.4 $Y=-1.24
Rg24	CLK	CLK#2	1.825E-02	$me1	$W=2.8e-07
+ $X=1.14 $Y=-1.18
Rg25	Q#1	Q#2	   11.2000	$me1	$W=3.2e-07
+ $X=3.92 $Y=-2.62
Rg26	avC8#7	avC8#8	   11.1189	$me1	$W=1.93e-07
+ $X=3.27 $Y=-3.04
Rg27	GND#17	GND#18	   11.2058	$me1	$W=3.05e-07	$X=4.92 $Y=-2.6
Rg28	VDD#9	VDD#10	1.377E-02	$me1	$W=5.2e-07
+ $X=4.95 $Y=-1.66
Rg29	VDD#8	VDD#9	    5.0000	$me1	$W=5.105e-07
+ $X=4.87 $Y=-1.68
Rg30	avC10	avC10#2	    0.7406	$me1	$W=1.93e-07
+ $X=4.68 $Y=-2.12
Rg31	avC10#2	avC10#3	   10.3902	$me1	$W=1.93e-07
+ $X=3.66 $Y=-2.18
Rg32	avC10	avC10#4	   10.1732	$me1	$W=1.93e-07
+ $X=5.44 $Y=-2.38
Rg33	avC10#2	avC10#5	   10.1882	$me1	$W=1.93e-07
+ $X=3.92 $Y=-1.92
Rg34	VDD#11	VDD#12	   11.2056	$me1	$W=3.13e-07
+ $X=5.92 $Y=-1.64
Rg35	GND#19	GND#20	   11.2058	$me1	$W=3.02e-07
+ $X=5.92 $Y=-2.64
Rg36	avC11	avC11#2	   10.1347	$me1	$W=2.83e-07
+ $X=6.44 $Y=-1.9
Rg37	avC11#2	avC11#3	   10.1347	$me1	$W=2.83e-07
+ $X=6.44 $Y=-2.38
Rg38	VDD#23	VDD#24	   11.2058	$me1	$W=3.05e-07
+ $X=7.44 $Y=-1.64
Rg39	GND#31	GND#32	   11.2058	$me1	$W=3.02e-07	$X=7.44 $Y=-2.6
Rg40	Q#6	Q#7	   10.2024	$me1	$W=1.93e-07
+ $X=6.96 $Y=-1.93
Rg41	Q#7	Q#9	    0.2097	$me1	$W=1.93e-07
+ $X=6.96 $Y=-2.35
Rg42	Q#9	Q#10	    1.2059	$me1	$W=3.005e-07
+ $X=6.94 $Y=-2.64
Rg43	Q#7	Q#4	    7.2316	$me1	$W=1.93e-07
+ $X=7.24 $Y=-2.14
Rg44	Q#8	Q#9	   10.0000	$me1	$W=1.93e-07
+ $X=6.92 $Y=-2.62
Rg45	QNOT	QNOT#1	   10.1966	$me1	$W=1.93e-07
+ $X=7.96 $Y=-2.3105
Rg46	QNOT	QNOT#2	   10.1969	$me1	$W=1.93e-07
+ $X=7.96 $Y=-1.9695
Rh1	CLK#1	CLK#2	   33.6667	$ply	$W=1.2e-07
+ $X=1.14 $Y=-1.4895
Rh2	CLK#1	CLK#3	   64.0000	$ply	$W=1.2e-07
+ $X=1.14 $Y=-2.1395
Rh3	avC8#4	avC8#5	   31.6938	$ply	$W=1.2e-07
+ $X=2.14 $Y=-1.8705
Rh4	avC8#5	avC8#2	   38.3939	$ply	$W=1.2e-07
+ $X=1.88 $Y=-2.14
Rh5	avC8#5	avC8#6	   31.6938	$ply	$W=1.2e-07
+ $X=2.14 $Y=-2.4085
Rh6	avC8#6	avC8#7	   33.6667	$ply	$W=1.2e-07
+ $X=2.14 $Y=-2.7905
Rh7	avC9	avC9#2	   26.1667	$ply	$W=1.2e-07
+ $X=2.66 $Y=-1.8305
Rh8	avC9#2	avC9#3	   26.1667	$ply	$W=1.2e-07
+ $X=2.66 $Y=-2.4485
Rh9	CLK#4	CLK#5	   33.6667	$ply	$W=1.2e-07
+ $X=3.66 $Y=-1.4895
Rh10	CLK#4	CLK#6	   64.0000	$ply	$W=1.2e-07
+ $X=3.66 $Y=-2.1395
Rh11	RST#1	RST#2	   52.1636	$ply	$W=1.2e-07
+ $X=5.0495 $Y=-2.3
Rh12	RST#2	RST	   15.6938	$ply	$W=1.2e-07
+ $X=4.5105 $Y=-2.3
Rh13	RST#2	RST#3	   18.0606	$ply	$W=1.2e-07
+ $X=4.66 $Y=-2.4885
Rh14	avC10#6	avC10#7	   30.3604	$ply	$W=1.2e-07
+ $X=6.18 $Y=-1.8605
Rh15	avC10#7	avC10	   38.3939	$ply	$W=1.2e-07
+ $X=5.92 $Y=-2.12
Rh16	avC10#7	avC10#8	   33.0271	$ply	$W=1.2e-07
+ $X=6.18 $Y=-2.3985
Rh17	avC11#4	avC11#5	   31.6938	$ply	$W=1.2e-07
+ $X=7.18 $Y=-1.8705
Rh18	avC11#5	avC11#2	   38.3939	$ply	$W=1.2e-07
+ $X=6.92 $Y=-2.14
Rh19	avC11#5	avC11#6	   31.6938	$ply	$W=1.2e-07
+ $X=7.18 $Y=-2.4085
Rh20	Q#3	Q#4	   26.1667	$ply	$W=1.2e-07
+ $X=7.7 $Y=-1.8305
Rh21	Q#4	Q#5	   26.1667	$ply	$W=1.2e-07
+ $X=7.7 $Y=-2.4485
*
*       CAPACITOR CARDS
*
*
C1	Q	GND	2.0477E-16	$X=6.0905 $Y=-3.1595
C2	QNOT	GND	6.30124E-17	$X=7.9445 $Y=-2.143
C3	RST	GND	2.09794E-16	$X=4.322 $Y=-1.7485
C4	avC12	GND	2.75446E-16	$X=1.1225 $Y=-1.8285
C5	avC11	GND	9.03317E-17	$X=6.3945 $Y=-1.702
C6	avC10	GND	2.57253E-16	$X=5.4845 $Y=-2.1755
C7	avC9	GND	6.10211E-17	$X=2.668 $Y=-1.591
C8	avC8	GND	1.53183E-16	$X=1.46 $Y=-1.701
C9	Q#3	GND	5.67653E-17	$X=7.6845 $Y=-1.591
C10	avC11#4	GND	7.75751E-17	$X=7.166 $Y=-1.611
C11	avC10#6	GND	6.05873E-17	$X=6.171 $Y=-1.606
C12	CLK#4	GND	8.12841E-17	$X=3.6645 $Y=-1.8205
C13	avC8#4	GND	6.85062E-17	$X=2.151 $Y=-1.611
C14	CLK#1	GND	8.37569E-17	$X=1.16 $Y=-1.8205
C15	Q#5	GND	5.3026E-17	$X=7.6845 $Y=-2.6945
C16	avC11#6	GND	5.94194E-17	$X=7.166 $Y=-2.675
C17	avC10#8	GND	4.9078E-17	$X=6.171 $Y=-2.67
C18	RST#1	GND	9.52432E-17	$X=5.1745 $Y=-2.5915
C19	RST#3	GND	4.02248E-17	$X=4.6585 $Y=-2.7145
C20	CLK#6	GND	1.01451E-16	$X=3.6655 $Y=-2.542
C21	avC9#3	GND	6.36344E-17	$X=2.668 $Y=-2.6945
C22	avC8#6	GND	3.17417E-17	$X=2.148 $Y=-2.6
C23	CLK#3	GND	1.15781E-16	$X=1.1645 $Y=-2.542
C24	Q#4	GND	2.57704E-16	$X=7.581 $Y=-2.1515
C25	avC11#2	GND	1.98252E-16	$X=6.467 $Y=-2.1535
C26	CLK#5	GND	3.73845E-16	$X=3.342 $Y=-1.294
C27	avC9#2	GND	2.53562E-16	$X=2.634 $Y=-2.1515
C28	avC8#7	GND	3.59294E-16	$X=2.536 $Y=-3.021
C29	avC8#2	GND	2.06577E-16	$X=1.55 $Y=-2.1505
C30	CLK#2	GND	3.70039E-16	$X=1.572 $Y=-1.294
C31	VDD#7	GND	3.1748E-16	$X=4.971 $Y=-1.8775
C32	VDD#17	GND	3.42345E-17	$X=4.9405 $Y=-1.6825
C33	VDD#26	GND	3.06622E-17	$X=7.393 $Y=-1.6585
C34	VDD#16	GND	2.88444E-17	$X=5.897 $Y=-1.6585
C35	VDD#15	GND	3.38364E-17	$X=4.9405 $Y=-1.6825
C36	VDD#4	GND	3.86933E-17	$X=2.433 $Y=-1.6585
C37	VDD#25	GND	1.86513E-17	$X=7.416 $Y=-1.6495
C38	VDD#14	GND	1.25873E-17	$X=5.908 $Y=-1.6495
C39	VDD#13	GND	3.11171E-17	$X=4.9405 $Y=-1.6825
C40	VDD#3	GND	4.18966E-17	$X=2.416 $Y=-1.6495
C41	VDD#23	GND	1.53844E-16	$X=7.393 $Y=-1.6585
C42	Q#10	GND	2.00242E-16	$X=6.912 $Y=-2.651
C43	VDD#11	GND	7.65277E-17	$X=5.897 $Y=-1.6585
C44	VDD#10	GND	1.71876E-16	$X=4.9325 $Y=-1.704
C45	Q#2	GND	4.01809E-16	$X=4.0865 $Y=-2.7715
C46	avC12#5	GND	3.83297E-16	$X=3.009 $Y=-1.873
C47	VDD#1	GND	2.7989E-16	$X=2.433 $Y=-1.6585
C48	VDD#8	GND	5.77259E-16	$X=4.514 $Y=-2.769
C49	QNOT#2	GND	7.02953E-17	$X=7.891 $Y=-1.719
C50	Q#6	GND	1.12835E-16	$X=6.9175 $Y=-1.7085
C51	avC10#5	GND	1.13356E-16	$X=3.9135 $Y=-1.7145
C52	avC12#4	GND	1.2352E-16	$X=3.4045 $Y=-1.678
C53	avC9#5	GND	1.80932E-16	$X=1.98 $Y=-1.71
C54	QNOT#1	GND	6.27693E-17	$X=7.891 $Y=-2.581
C55	avC11#3	GND	1.17151E-16	$X=6.3945 $Y=-2.598
C56	avC10#4	GND	9.83528E-17	$X=5.4105 $Y=-2.593
C57	avC8#8	GND	3.28376E-16	$X=4.388 $Y=-2.7125
C58	avC10#3	GND	2.28058E-16	$X=3.435 $Y=-2.53
C59	avC12#8	GND	1.66112E-16	$X=2.9525 $Y=-2.5395
C60	avC9#7	GND	1.68649E-16	$X=1.98 $Y=-2.591
C61	avC8#3	GND	1.03346E-16	$X=1.46 $Y=-2.598
C62	D#1	GND	1.48089E-16	$X=0.8595 $Y=-2.7185
C63	D#4	GND	1.22038E-16	$X=0.836 $Y=-2.371
C64	avC8#5	GND	1.04762E-16	$X=2.1555 $Y=-2.1435
C65	avC9#4	GND	9.8599E-17	$X=2.0175 $Y=-2.145
C66	RST#2	GND	8.30722E-17	$X=4.6585 $Y=-2.3665
C67	avC10#2	GND	1.83242E-16	$X=3.9285 $Y=-2.1165
C68	avC10#7	GND	8.40032E-17	$X=6.1675 $Y=-2.134
C69	avC11#5	GND	9.76025E-17	$X=7.161 $Y=-2.1435
C70	Q#7	GND	8.54255E-17	$X=6.9405 $Y=-2.1445
*
*
.ENDS dff-standalone_PT
*
