*
*
*
*                       LINUX           Wed May 21 12:49:14 2025
*
*
*
*  PROGRAM  advgen
*
*  Name           : advgen - Quantus QRC - (64-bit)
*  Version        : 15.2.0-p076
*  Build Date     : Tue Jan 26 10:13:56 PST 2016
*
*  HSPICE LIBRARY
*
*
*

*
.SUBCKT dff_PT_odd VDD GND !CONT_OUT !QPREV CLK CONT_IN D GAFT GOUT GSEL OUT Q
+ QNOT QPREV RST
*
*
*  caps2d version: 9
*
*
*       TRANSISTOR CARDS
*
*
MI41/avD1_1	I41/avC8#3	CLK#3	D#2	GND#2	N_12_HSL130E#20ivpcell
+ L=1.2e-07	W=2.8e-07
+ AD=9.52e-14	AS=9.52e-14	PD=1.24e-06	PS=1.24e-06
+ effW=2.8e-07
MI41/avD1_2	GND#11	I41/avC8#6	I41/avC9#7	GND#2
+ N_12_HSL130E#20ivpcell	L=1.2e-07	W=2.8e-07
+ AD=5.6e-14	AS=9.52e-14	PD=6.8e-07	PS=1.24e-06	effW=2.8e-07
MI41/avD1_3	I41/avC12#8	I41/avC9#3	GND#11	GND#2
+ N_12_HSL130E#20ivpcell	L=1.2e-07	W=2.8e-07
+ AD=9.52e-14	AS=5.6e-14	PD=1.24e-06	PS=6.8e-07	effW=2.8e-07
MI41/avD1_4	Q#1	CLK#6	I41/avC10#3	GND#2	N_12_HSL130E#20ivpcell
+ L=1.2e-07	W=2.8e-07
+ AD=9.52e-14	AS=9.52e-14	PD=1.24e-06	PS=1.24e-06
+ effW=2.8e-07
MI41/avD1_5	GND#18	RST#3	I41/avC8#8	GND#2	N_12_HSL130E#20ivpcell
+ L=1.2e-07	W=2.8e-07
+ AD=5.6e-14	AS=9.52e-14	PD=6.8e-07	PS=1.24e-06
+ effW=2.8e-07
MI41/avD1_6	I41/avC10#4	RST#1	GND#18	GND#2	N_12_HSL130E#20ivpcell
+ L=1.2e-07	W=2.8e-07
+ AD=9.52e-14	AS=5.6e-14	PD=1.24e-06	PS=6.8e-07
+ effW=2.8e-07
MI41/avD1_7	I41/avC11#3	I41/avC10#8	GND#19	GND#2
+ N_12_HSL130E#20ivpcell	L=1.2e-07	W=2.8e-07
+ AD=9.52e-14	AS=9.52e-14	PD=1.24e-06	PS=1.24e-06	effW=2.8e-07
MI41/avD1_8	GND#32	I41/avC11#6	Q#8	GND#2	N_12_HSL130E#20ivpcell
+ L=1.2e-07	W=2.8e-07
+ AD=5.6e-14	AS=9.52e-14	PD=6.8e-07	PS=1.24e-06
+ effW=2.8e-07
MI41/avD1_9	QNOT#2	Q#5	GND#32	GND#2	N_12_HSL130E#20ivpcell
+ L=1.2e-07	W=2.8e-07
+ AD=9.52e-14	AS=5.6e-14	PD=1.24e-06	PS=6.8e-07
+ effW=2.8e-07
MavD1_1	!QPREV#1	QNOT#5	avC17#2	GND#2	N_12_HSL130E#20ivpcell
+ L=1.2e-07	W=2.8e-07
+ AD=9.52e-14	AS=5.6e-14	PD=1.24e-06	PS=6.8e-07
+ effW=2.8e-07
MavD1_2	avC17#2	Q#14	QPREV#1	GND#2	N_12_HSL130E#20ivpcell
+ L=1.2e-07	W=2.8e-07
+ AD=5.6e-14	AS=9.52e-14	PD=6.8e-07	PS=1.24e-06
+ effW=2.8e-07
MavD1_3	Q#15	QNOT#4	avC16#5	GND#2	N_12_HSL130E#20ivpcell
+ L=1.2e-07	W=2.8e-07
+ AD=9.52e-14	AS=5.6e-14	PD=1.24e-06	PS=6.8e-07
+ effW=2.8e-07
MavD1_4	avC16#5	Q#13	CONT_IN#1	GND#2	N_12_HSL130E#20ivpcell
+ L=1.2e-07	W=2.8e-07
+ AD=5.6e-14	AS=9.52e-14	PD=6.8e-07	PS=1.24e-06
+ effW=2.8e-07
MavD1_5	GND#38	avC16#4	!CONT_OUT#2	GND#2	N_12_HSL130E#20ivpcell
+ L=1.2e-07	W=2.8e-07
+ AD=5.6e-14	AS=9.52e-14	PD=6.8e-07	PS=1.24e-06
+ effW=2.8e-07
MavD1_6	GOUT#2	avC17#8	GND#38	GND#2	N_12_HSL130E#20ivpcell
+ L=1.2e-07	W=2.8e-07
+ AD=9.52e-14	AS=5.6e-14	PD=1.24e-06	PS=6.8e-07
+ effW=2.8e-07
MavD1_7	avC18#2	GSEL#1	GAFT#1	GND#2	N_12_HSL130E#20ivpcell
+ L=1.2e-07	W=2.8e-07
+ AD=9.52e-14	AS=9.52e-14	PD=1.24e-06	PS=1.24e-06
+ effW=2.8e-07
MavD1_8	GND#48	avC18#6	avC19#3	GND#2	N_12_HSL130E#20ivpcell
+ L=1.2e-07	W=2.8e-07
+ AD=5.6e-14	AS=9.52e-14	PD=6.8e-07	PS=1.24e-06
+ effW=2.8e-07
MavD1_9	OUT#2	avC19#6	GND#48	GND#2	N_12_HSL130E#20ivpcell
+ L=1.2e-07	W=2.8e-07
+ AD=9.52e-14	AS=5.6e-14	PD=1.24e-06	PS=6.8e-07
+ effW=2.8e-07
MI41/avD2_1	I41/avC8	CLK#1	I41/avC12#2	VDD#8
+ P_12_HSL130E#20ivpcell	L=1.2e-07	W=2.8e-07
+ AD=9.52e-14	AS=9.52e-14	PD=1.24e-06	PS=1.24e-06	effW=2.8e-07
MI41/avD2_2	VDD#2	I41/avC8#4	I41/avC9#5	VDD#8
+ P_12_HSL130E#20ivpcell	L=1.2e-07	W=2.8e-07
+ AD=5.6e-14	AS=9.52e-14	PD=6.8e-07	PS=1.24e-06	effW=2.8e-07
MI41/avD2_3	I41/avC12#6	I41/avC9	VDD#2	VDD#8
+ P_12_HSL130E#20ivpcell	L=1.2e-07	W=2.8e-07
+ AD=9.52e-14	AS=5.6e-14	PD=1.24e-06	PS=6.8e-07	effW=2.8e-07
MI41/avD2_4	I41/avC10#5	CLK#4	I41/avC12#4	VDD#8
+ P_12_HSL130E#20ivpcell	L=1.2e-07	W=2.8e-07
+ AD=9.52e-14	AS=9.52e-14	PD=1.24e-06	PS=1.24e-06	effW=2.8e-07
MI41/avD2_5	I41/avC11	I41/avC10#6	VDD#12	VDD#8
+ P_12_HSL130E#20ivpcell	L=1.2e-07	W=2.8e-07
+ AD=9.52e-14	AS=9.52e-14	PD=1.24e-06	PS=1.24e-06	effW=2.8e-07
MI41/avD2_6	VDD#24	I41/avC11#4	Q#6	VDD#8	P_12_HSL130E#20ivpcell
+ L=1.2e-07	W=2.8e-07
+ AD=5.6e-14	AS=9.52e-14	PD=6.8e-07	PS=1.24e-06
+ effW=2.8e-07
MI41/avD2_7	QNOT#3	Q#3	VDD#24	VDD#8	P_12_HSL130E#20ivpcell
+ L=1.2e-07	W=2.8e-07
+ AD=9.52e-14	AS=5.6e-14	PD=1.24e-06	PS=6.8e-07
+ effW=2.8e-07
MavD2_1	VDD#31	avC16	!CONT_OUT#5	VDD#45	P_12_HSL130E#20ivpcell
+ L=1.2e-07	W=2.8e-07
+ AD=5.6e-14	AS=9.52e-14	PD=6.8e-07	PS=1.24e-06
+ effW=2.8e-07
MavD2_2	GOUT#1	avC17#7	VDD#31	VDD#45	P_12_HSL130E#20ivpcell
+ L=1.2e-07	W=2.8e-07
+ AD=9.52e-14	AS=5.6e-14	PD=1.24e-06	PS=6.8e-07
+ effW=2.8e-07
MavD2_3	avC18#3	GSEL#2	Q#18	VDD#45	P_12_HSL130E#20ivpcell
+ L=1.2e-07	W=2.8e-07
+ AD=9.52e-14	AS=9.52e-14	PD=1.24e-06	PS=1.24e-06
+ effW=2.8e-07
MavD2_4	VDD#40	avC18#4	avC19	VDD#45	P_12_HSL130E#20ivpcell
+ L=1.2e-07	W=2.8e-07
+ AD=5.6e-14	AS=9.52e-14	PD=6.8e-07	PS=1.24e-06
+ effW=2.8e-07
MavD2_5	OUT#1	avC19#5	VDD#40	VDD#45	P_12_HSL130E#20ivpcell
+ L=1.2e-07	W=2.8e-07
+ AD=9.52e-14	AS=5.6e-14	PD=1.24e-06	PS=6.8e-07
+ effW=2.8e-07
*
*
*       RESISTOR AND CAP/DIODE CARDS
*
Rb2	GND#16	GND	6.615E-02	$me6	$W=2.5e-07
+ $X=13.2795 $Y=-20.87
Rb3	GND	GND#16	    0.3869	$me6	$W=2e-07
+ $X=12.1195 $Y=-20.87
Rb14	GND#16	GND#9	1.094E-02	$me6	$W=2e-07
+ $X=0.24 $Y=-20.6
Rb15	VDD#51	VDD#7	7.478E-02	$me6	$W=2.5e-07
+ $X=14.635 $Y=-19.885
Rb16	VDD#7	VDD	    0.1206	$me6	$W=2.5e-07
+ $X=14.5295 $Y=-19.2
Rb17	VDD	VDD#7	7.132E-02	$me6	$W=2e-07
+ $X=14.0045 $Y=-19.2
Rc1	GND#9	GND#6	    1.2000	$me5	$W=6.8e-07
+ $X=0.24 $Y=-20.57
Rc2	VDD#7	VDD#4	    2.4000	$me5	$W=3.2e-07
+ $X=2.38 $Y=-19.54
Rc3	GND#14	GND#16	    1.2000	$me5	$W=3.2e-07
+ $X=2.38 $Y=-20.5
Rc4	GND#16	GND#23	    2.4000	$me5	$W=3.2e-07	$X=4.9 $Y=-20.5
Rc5	VDD#17	VDD#7	    0.6000	$me5	$W=6.8e-07
+ $X=4.93 $Y=-19.56
Rc6	VDD#7	VDD#16	    2.4000	$me5	$W=3.2e-07
+ $X=5.9 $Y=-19.54
Rc7	GND#27	GND#16	    1.2000	$me5	$W=3.2e-07
+ $X=5.9 $Y=-20.54
Rc8	VDD#7	VDD#26	    2.4000	$me5	$W=3.2e-07
+ $X=7.42 $Y=-19.54
Rc9	GND#33	GND#16	    1.2000	$me5	$W=3.2e-07
+ $X=7.42 $Y=-20.5
Rc10	VDD#7	VDD#33	    2.4000	$me5	$W=3.2e-07
+ $X=10.86 $Y=-19.5
Rc11	GND#42	GND#16	    1.2000	$me5	$W=3.2e-07
+ $X=10.86 $Y=-20.54
Rc12	VDD#7	VDD#39	    2.4000	$me5	$W=3.2e-07
+ $X=13.38 $Y=-19.54
Rc13	GND#49	GND#16	    1.2000	$me5	$W=3.2e-07
+ $X=13.38 $Y=-20.54
Rc14	VDD#49	VDD#51	    0.4000	$me5	$W=1.16e-06
+ $X=14.635 $Y=-20.09
Rd5	GND#14	GND#13	    1.2000	$me4	$W=3.2e-07
+ $X=2.38 $Y=-20.5
Rd7	GND#21	GND#23	    1.2000	$me4	$W=3.2e-07	$X=4.9 $Y=-20.5
Rd9	VDD#17	VDD#15	    0.6000	$me4	$W=6.8e-07
+ $X=4.93 $Y=-19.56
Rd13	GND#27	GND#26	    1.2000	$me4	$W=3.2e-07
+ $X=5.9 $Y=-20.54
Rd15	VDD#25	VDD#26	    1.2000	$me4	$W=3.2e-07
+ $X=7.42 $Y=-19.54
Rd17	GND#33	GND#34	    1.2000	$me4	$W=3.2e-07
+ $X=7.42 $Y=-20.5
Rd19	!QPREV#5	!QPREV#6	8.573E-02	$me4	$W=2.5e-07
+ $X=8.595 $Y=-19.64
Rd20	!QPREV#6	!QPREV	4.925E-02	$me4	$W=2.5e-07
+ $X=8.595 $Y=-19.64
Rd23	GND#42	GND#41	    1.2000	$me4	$W=3.2e-07
+ $X=10.86 $Y=-20.54
Rd27	GND#49	GND#47	    1.2000	$me4	$W=3.2e-07
+ $X=13.38 $Y=-20.54
Rd29	VDD#49	VDD#48	    0.4000	$me4	$W=1.16e-06
+ $X=14.635 $Y=-20.09
Re1	GND#6	GND#5	    0.6000	$me3	$W=6.8e-07
+ $X=0.24 $Y=-20.57
Re2	VDD#4	VDD#3	    1.2000	$me3	$W=3.2e-07
+ $X=2.38 $Y=-19.54
Re3	GND#12	GND#13	    1.2000	$me3	$W=3.2e-07
+ $X=2.38 $Y=-20.5
Re5	VDD#13	VDD#15	    0.6000	$me3	$W=6.8e-07
+ $X=4.93 $Y=-19.56
Re6	VDD#16	VDD#14	    1.2000	$me3	$W=3.2e-07
+ $X=5.9 $Y=-19.54
Re7	GND#25	GND#26	    1.2000	$me3	$W=3.2e-07
+ $X=5.9 $Y=-20.54
Re9	GND#36	GND#34	    1.2000	$me3	$W=3.2e-07
+ $X=7.42 $Y=-20.5
Re10	!QPREV#4	!QPREV#5	    1.2000	$me3	$W=3.2e-07
+ $X=8.83 $Y=-19.64
Re11	VDD#33	VDD#32	    1.2000	$me3	$W=3.2e-07
+ $X=10.86 $Y=-19.5
Re12	GND#40	GND#41	    1.2000	$me3	$W=3.2e-07
+ $X=10.86 $Y=-20.54
Re13	avC17#5	avC17#3	    1.9907	$me3	$W=2.05e-07
+ $X=10.5075 $Y=-20.02
Re14	GAFT	GAFT#4	    0.1715	$me3	$W=2.5e-07
+ $X=11.92 $Y=-20.7945
Re15	VDD#39	VDD#38	    1.2000	$me3	$W=3.2e-07
+ $X=13.38 $Y=-19.54
Re16	GND#45	GND#47	    1.2000	$me3	$W=3.2e-07
+ $X=13.38 $Y=-20.54
Re17	VDD#47	VDD#48	    0.4000	$me3	$W=1.16e-06
+ $X=14.635 $Y=-20.09
Rf1	GND#5	GND#1	    1.2000	$me2	$W=6.8e-07
+ $X=0.24 $Y=-20.57
Rf2	VDD#3	VDD#1	    1.2000	$me2	$W=3.2e-07
+ $X=2.38 $Y=-19.54
Rf3	GND#10	GND#12	    1.2000	$me2	$W=3.2e-07
+ $X=2.38 $Y=-20.5
Rf4	I41/avC12#5	I41/avC12#9	    2.1381	$me2	$W=2.05e-07
+ $X=2.93 $Y=-19.77
Rf5	I41/avC12	I41/avC12#9	    1.2000	$me2	$W=2.5e-07
+ $X=0.88 $Y=-19.58
Rf6	GND#21	GND#17	    1.2000	$me2	$W=3.2e-07	$X=4.9 $Y=-20.5
Rf7	VDD#10	VDD#13	    1.2000	$me2	$W=6.8e-07
+ $X=4.93 $Y=-19.56
Rf8	VDD#14	VDD#11	    1.2000	$me2	$W=3.2e-07
+ $X=5.9 $Y=-19.54
Rf9	GND#20	GND#25	    1.2000	$me2	$W=3.2e-07
+ $X=5.9 $Y=-20.54
Rf10	VDD#25	VDD#23	    1.2000	$me2	$W=3.2e-07
+ $X=7.42 $Y=-19.54
Rf11	GND#31	GND#36	    1.2000	$me2	$W=3.2e-07
+ $X=7.42 $Y=-20.5
Rf12	!QPREV#3	!QPREV#4	    2.4000	$me2	$W=3.2e-07
+ $X=8.83 $Y=-19.64
Rf13	avC17#3	avC17	    1.2000	$me2	$W=3.2e-07
+ $X=8.84 $Y=-20.18
Rf14	!CONT_OUT#4	!CONT_OUT	    1.2709	$me2	$W=2.515e-07
+ $X=10.37 $Y=-19.7345
Rf15	!CONT_OUT	!CONT_OUT#7	    0.2639	$me2	$W=2.515e-07
+ $X=10.37 $Y=-20.068
Rf16	!CONT_OUT#1	!CONT_OUT#7	    1.2000	$me2	$W=2.515e-07
+ $X=10.32 $Y=-20.54
Rf17	VDD#32	VDD#30	    1.2000	$me2	$W=3.2e-07
+ $X=10.86 $Y=-19.5
Rf18	GND#39	GND#40	    1.2000	$me2	$W=3.2e-07
+ $X=10.86 $Y=-20.54
Rf20	Q#19	Q	    0.4456	$me2	$W=2.5e-07
+ $X=11.86 $Y=-19.28
Rf21	Q	Q#20	    0.5273	$me2	$W=2.05e-07
+ $X=10.702 $Y=-19
Rf22	Q#20	Q#21	    0.1322	$me2	$W=3.5e-07
+ $X=9.685 $Y=-19.5875
Rf23	Q#20	Q#12	    1.0337	$me2	$W=2.5e-07
+ $X=9.83 $Y=-20.355
Rf24	Q#12	Q#22	    0.4986	$me2	$W=2.5e-07
+ $X=7.61 $Y=-21.07
Rf25	Q#22	Q#2	    1.1732	$me2	$W=2.05e-07
+ $X=5.6575 $Y=-21.07
Rf26	Q#22	Q#10	    0.1644	$me2	$W=2.5e-07
+ $X=6.92 $Y=-20.805
Rf27	Q#17	Q#21	    1.2000	$me2	$W=2.545e-07
+ $X=9.49 $Y=-19.64
Rf28	GAFT#3	GAFT#4	    2.4000	$me2	$W=3.2e-07
+ $X=11.92 $Y=-20.51
Rf29	VDD#37	VDD#38	    2.4000	$me2	$W=3.2e-07
+ $X=13.38 $Y=-19.54
Rf30	GND#45	GND#46	    2.4000	$me2	$W=3.2e-07
+ $X=13.38 $Y=-20.54
Rf31	VDD#47	VDD#44	    0.8000	$me2	$W=1.16e-06
+ $X=14.635 $Y=-20.09
Rg1	GND#1	GND#3	2.764E-03	$me1	$W=3.18e-07
+ $X=0.245 $Y=-20.56
Rg3	GND#2	GND#3	    5.0000	$me1	$W=0.002
+ $X=0.27 $Y=-20.56
Rg4	D#1	D#3	5.016E-03	$me1	$W=7.01e-07
+ $X=0.86 $Y=-20.52
Rg5	D	D#4	5.016E-03	$me1	$W=7.01e-07	$X=0.8 $Y=-20.2
Rg6	D#1	D#4	6.822E-02	$me1	$W=4.08e-07
+ $X=0.82 $Y=-20.36
Rg7	D#2	D#3	   10.0000	$me1	$W=4.08e-07
+ $X=0.86 $Y=-20.52
Rg8	I41/avC12	I41/avC12#3	5.644E-03	$me1	$W=3.115e-07
+ $X=0.88 $Y=-19.58
Rg9	I41/avC12#2	I41/avC12#3	   10.0000	$me1	$W=3.115e-07
+ $X=0.86 $Y=-19.56
Rg10	I41/avC8	I41/avC8#2	   10.1756	$me1	$W=1.95e-07
+ $X=1.44 $Y=-19.8
Rg11	I41/avC8#2	I41/avC8#3	   10.1741	$me1	$W=1.975e-07
+ $X=1.44 $Y=-20.28
Rg12	VDD#1	VDD#2	   11.2059	$me1	$W=3.005e-07
+ $X=2.38 $Y=-19.54
Rg13	GND#10	GND#11	   11.2059	$me1	$W=3.005e-07
+ $X=2.38 $Y=-20.5
Rg14	I41/avC9#2	I41/avC9#4	    7.1958	$me1	$W=1.93e-07
+ $X=2.22 $Y=-20.04
Rg15	I41/avC9#4	I41/avC9#6	    0.2192	$me1	$W=1.93e-07
+ $X=1.98 $Y=-19.83
Rg16	I41/avC9#4	I41/avC9#8	    0.2188	$me1	$W=1.93e-07
+ $X=1.98 $Y=-20.25
Rg17	I41/avC9#5	I41/avC9#6	   10.0000	$me1	$W=1.93e-07
+ $X=1.86 $Y=-19.56
Rg18	I41/avC9#7	I41/avC9#8	   10.0000	$me1	$W=1.93e-07
+ $X=1.86 $Y=-20.52
Rg19	I41/avC12#4	I41/avC12#5	   10.1391	$me1	$W=2.825e-07
+ $X=3.16 $Y=-19.56
Rg20	I41/avC12#5	I41/avC12#7	5.699E-03	$me1	$W=3.2e-07
+ $X=2.92 $Y=-19.54
Rg21	I41/avC12#7	I41/avC12#8	   10.4077	$me1	$W=1.93e-07
+ $X=2.94 $Y=-20.04
Rg22	I41/avC12#6	I41/avC12#7	   10.0000	$me1	$W=2.78e-07
+ $X=2.9 $Y=-19.56
Rg23	CLK#5	CLK	    0.8048	$me1	$W=1.93e-07
+ $X=2.6505 $Y=-19.14
Rg24	CLK	CLK#2	    0.2854	$me1	$W=1.93e-07
+ $X=1.5295 $Y=-19.14
Rg25	Q#1	Q#2	   11.2000	$me1	$W=3.2e-07
+ $X=3.9 $Y=-20.52
Rg26	I41/avC8#7	I41/avC8#8	   11.1189	$me1	$W=1.93e-07
+ $X=3.25 $Y=-20.94
Rg27	GND#17	GND#18	   11.2058	$me1	$W=3.05e-07	$X=4.9 $Y=-20.5
Rg28	VDD#9	VDD#10	1.377E-02	$me1	$W=5.2e-07
+ $X=4.93 $Y=-19.56
Rg29	VDD#8	VDD#9	    5.0000	$me1	$W=5.105e-07
+ $X=4.85 $Y=-19.58
Rg30	I41/avC10	I41/avC10#2	    0.7406	$me1	$W=1.93e-07
+ $X=4.66 $Y=-20.02
Rg31	I41/avC10#2	I41/avC10#3	   10.3902	$me1	$W=1.93e-07
+ $X=3.64 $Y=-20.08
Rg32	I41/avC10	I41/avC10#4	   10.1732	$me1	$W=1.93e-07
+ $X=5.42 $Y=-20.28
Rg33	I41/avC10#2	I41/avC10#5	   10.1882	$me1	$W=1.93e-07
+ $X=3.9 $Y=-19.82
Rg34	VDD#11	VDD#12	   11.2056	$me1	$W=3.13e-07
+ $X=5.9 $Y=-19.54
Rg35	GND#19	GND#20	   11.2058	$me1	$W=3.02e-07
+ $X=5.9 $Y=-20.54
Rg36	I41/avC11	I41/avC11#2	   10.1347	$me1	$W=2.83e-07
+ $X=6.42 $Y=-19.8
Rg37	I41/avC11#2	I41/avC11#3	   10.1347	$me1	$W=2.83e-07
+ $X=6.42 $Y=-20.28
Rg38	VDD#23	VDD#24	   11.2058	$me1	$W=3.05e-07
+ $X=7.42 $Y=-19.54
Rg39	GND#31	GND#32	   11.2058	$me1	$W=3.02e-07
+ $X=7.42 $Y=-20.5
Rg40	Q#6	Q#7	   10.2024	$me1	$W=1.93e-07
+ $X=6.94 $Y=-19.83
Rg41	Q#7	Q#9	    0.2097	$me1	$W=1.93e-07
+ $X=6.94 $Y=-20.25
Rg42	Q#9	Q#10	    1.2059	$me1	$W=3.005e-07
+ $X=6.92 $Y=-20.54
Rg43	Q#7	Q#4	    7.2316	$me1	$W=1.93e-07
+ $X=7.22 $Y=-20.04
Rg44	Q#8	Q#9	   10.0000	$me1	$W=1.93e-07
+ $X=6.9 $Y=-20.52
Rg45	Q#11	Q#12	    8.2000	$me1	$W=3.2e-07
+ $X=8.3 $Y=-20.98
Rg46	QNOT#1	QNOT	    7.1497	$me1	$W=1.93e-07
+ $X=8.145 $Y=-19.93
Rg47	QNOT	QNOT#2	   10.2567	$me1	$W=1.93e-07
+ $X=7.94 $Y=-20.195
Rg48	QNOT	QNOT#3	   10.1164	$me1	$W=2.41e-07
+ $X=7.97 $Y=-19.775
Rg49	QPREV	QPREV#1	   10.0881	$me1	$W=2.84e-07
+ $X=8.82 $Y=-20.913
Rg50	!QPREV#2	!QPREV#3	5.477E-03	$me1	$W=3.21e-07
+ $X=8.83 $Y=-19.64
Rg51	!QPREV#1	!QPREV#2	   10.0000	$me1	$W=3.21e-07
+ $X=8.82 $Y=-19.66
Rg52	avC17	avC17#2	   11.2058	$me1	$W=3.05e-07
+ $X=8.84 $Y=-20.18
Rg53	Q#16	Q#17	8.385E-03	$me1	$W=3.145e-07
+ $X=9.485 $Y=-19.64
Rg54	Q#15	Q#16	   10.0000	$me1	$W=3.145e-07
+ $X=9.46 $Y=-19.66
Rg55	CONT_IN#1	CONT_IN	   10.1568	$me1	$W=2.83e-07
+ $X=9.765 $Y=-20.97
Rg56	avC16#3	avC16#5	   10.2600	$me1	$W=1.93e-07
+ $X=9.7325 $Y=-20.19
Rg57	!CONT_OUT#1	!CONT_OUT#3	5.617E-03	$me1	$W=3.13e-07
+ $X=10.32 $Y=-20.54
Rg58	!CONT_OUT#2	!CONT_OUT#3	   10.0000	$me1	$W=3.13e-07
+ $X=10.34 $Y=-20.52
Rg59	!CONT_OUT#4	!CONT_OUT#6	5.626E-03	$me1	$W=3.125e-07
+ $X=10.33 $Y=-19.58
Rg60	!CONT_OUT#5	!CONT_OUT#6	   10.0000	$me1	$W=3.125e-07
+ $X=10.34 $Y=-19.56
Rg61	VDD#30	VDD#31	   11.2173	$me1	$W=3.045e-07
+ $X=10.86 $Y=-19.52
Rg62	GND#38	GND#39	   11.2058	$me1	$W=3.05e-07
+ $X=10.86 $Y=-20.54
Rg63	avC17#4	avC17#5	    8.2000	$me1	$W=3.2e-07
+ $X=11 $Y=-20.02
Rg64	GOUT#1	GOUT	   10.1215	$me1	$W=1.93e-07
+ $X=11.41 $Y=-19.7845
Rg65	GOUT	GOUT#2	   10.2734	$me1	$W=1.93e-07
+ $X=11.41 $Y=-20.1255
Rg66	Q#18	Q#19	   11.2000	$me1	$W=3.2e-07
+ $X=11.86 $Y=-19.56
Rg67	GAFT#2	GAFT#3	1.643E-02	$me1	$W=3.21e-07
+ $X=11.9 $Y=-20.51
Rg68	GAFT#1	GAFT#2	   10.0000	$me1	$W=3.21e-07
+ $X=11.86 $Y=-20.52
Rg69	avC18	avC18#2	   10.1701	$me1	$W=1.955e-07
+ $X=12.38 $Y=-20.28
Rg70	avC18	avC18#3	   10.1695	$me1	$W=1.955e-07
+ $X=12.38 $Y=-19.8
Rg71	VDD#37	VDD#40	   10.0058	$me1	$W=3.05e-07
+ $X=13.38 $Y=-19.54
Rg72	GND#48	GND#46	   10.0058	$me1	$W=3.05e-07
+ $X=13.38 $Y=-20.54
Rg73	avC19	avC19#2	   10.2024	$me1	$W=1.93e-07
+ $X=12.91 $Y=-19.83
Rg74	avC19#2	avC19#3	   10.2024	$me1	$W=1.93e-07
+ $X=12.91 $Y=-20.25
Rg75	avC19#2	avC19#4	    7.2273	$me1	$W=1.93e-07
+ $X=13.185 $Y=-20.04
Rg76	OUT#1	OUT	   10.2304	$me1	$W=2.255e-07
+ $X=13.94 $Y=-19.9395
Rg77	OUT	OUT#2	   10.1213	$me1	$W=2.255e-07
+ $X=13.94 $Y=-20.2805
Rg78	VDD#44	VDD#46	1.369E-02	$me1	$W=3.21e-07
+ $X=14.635 $Y=-20.09
Rg79	VDD#45	VDD#46	    2.5000	$me1	$W=3.21e-07
+ $X=14.655 $Y=-20.04
Rh1	CLK#1	CLK#2	   33.6667	$ply	$W=1.2e-07
+ $X=1.12 $Y=-19.3895
Rh2	CLK#1	CLK#3	   64.0000	$ply	$W=1.2e-07
+ $X=1.12 $Y=-20.0395
Rh3	I41/avC8#4	I41/avC8#5	   31.6938	$ply	$W=1.2e-07
+ $X=2.12 $Y=-19.7705
Rh4	I41/avC8#5	I41/avC8#2	   38.3939	$ply	$W=1.2e-07
+ $X=1.86 $Y=-20.04
Rh5	I41/avC8#5	I41/avC8#6	   31.6938	$ply	$W=1.2e-07
+ $X=2.12 $Y=-20.3085
Rh6	I41/avC8#6	I41/avC8#7	   33.6667	$ply	$W=1.2e-07
+ $X=2.12 $Y=-20.6905
Rh7	I41/avC9	I41/avC9#2	   26.1667	$ply	$W=1.2e-07
+ $X=2.64 $Y=-19.7305
Rh8	I41/avC9#2	I41/avC9#3	   26.1667	$ply	$W=1.2e-07
+ $X=2.64 $Y=-20.3485
Rh9	CLK#4	CLK#5	   33.6667	$ply	$W=1.2e-07
+ $X=3.64 $Y=-19.3895
Rh10	CLK#4	CLK#6	   64.0000	$ply	$W=1.2e-07
+ $X=3.64 $Y=-20.0395
Rh11	RST#1	RST#2	   52.1636	$ply	$W=1.2e-07
+ $X=5.0295 $Y=-20.2
Rh12	RST#2	RST	   96.8303	$ply	$W=1.2e-07
+ $X=4.47 $Y=-20.2
Rh13	RST#2	RST#3	   18.0606	$ply	$W=1.2e-07
+ $X=4.64 $Y=-20.3885
Rh14	I41/avC10#6	I41/avC10#7	   30.3604	$ply	$W=1.2e-07
+ $X=6.16 $Y=-19.7605
Rh15	I41/avC10#7	I41/avC10	   38.3939	$ply	$W=1.2e-07
+ $X=5.9 $Y=-20.02
Rh16	I41/avC10#7	I41/avC10#8	   33.0271	$ply	$W=1.2e-07
+ $X=6.16 $Y=-20.2985
Rh17	I41/avC11#4	I41/avC11#5	   31.6938	$ply	$W=1.2e-07
+ $X=7.16 $Y=-19.7705
Rh18	I41/avC11#5	I41/avC11#2	   38.3939	$ply	$W=1.2e-07
+ $X=6.9 $Y=-20.04
Rh19	I41/avC11#5	I41/avC11#6	   31.6938	$ply	$W=1.2e-07
+ $X=7.16 $Y=-20.3085
Rh20	Q#3	Q#4	   26.1667	$ply	$W=1.2e-07
+ $X=7.68 $Y=-19.7305
Rh21	Q#4	Q#5	   26.1667	$ply	$W=1.2e-07
+ $X=7.68 $Y=-20.3485
Rh22	QNOT#4	QNOT#5	   42.6667	$ply	$W=1.2e-07
+ $X=9.1405 $Y=-19.92
Rh23	QNOT#5	QNOT#1	   26.0000	$ply	$W=1.2e-07
+ $X=8.6545 $Y=-19.92
Rh24	Q#13	Q#14	   42.6667	$ply	$W=1.2e-07
+ $X=9.1405 $Y=-20.44
Rh25	Q#14	Q#11	   63.8032	$ply	$W=1.2e-07
+ $X=8.4045 $Y=-20.44
Rh26	avC16	avC16#2	   34.3604	$ply	$W=1.2e-07
+ $X=10.6 $Y=-19.7905
Rh27	avC16#2	avC16#3	   30.3939	$ply	$W=1.2e-07
+ $X=10.4 $Y=-20.08
Rh28	avC16#2	avC16#4	   29.0271	$ply	$W=1.2e-07
+ $X=10.6 $Y=-20.3285
Rh29	avC17#7	avC17#4	   24.8333	$ply	$W=1.2e-07
+ $X=11.12 $Y=-19.7205
Rh30	avC17#4	avC17#8	   27.5000	$ply	$W=1.2e-07
+ $X=11.12 $Y=-20.3385
Rh31	GSEL	GSEL#1	   26.0000	$ply	$W=1.2e-07
+ $X=12.12 $Y=-20.3235
Rh32	GSEL	GSEL#2	   38.0000	$ply	$W=1.2e-07
+ $X=12.12 $Y=-19.8465
Rh33	avC18#4	avC18#5	   31.6938	$ply	$W=1.2e-07
+ $X=13.12 $Y=-19.7705
Rh34	avC18#5	avC18	   38.3939	$ply	$W=1.2e-07
+ $X=12.86 $Y=-20.04
Rh35	avC18#5	avC18#6	   31.6938	$ply	$W=1.2e-07
+ $X=13.12 $Y=-20.3085
Rh36	avC19#5	avC19#4	   26.1667	$ply	$W=1.2e-07
+ $X=13.64 $Y=-19.7305
Rh37	avC19#4	avC19#6	   26.1667	$ply	$W=1.2e-07
+ $X=13.64 $Y=-20.3485
*
*       CAPACITOR CARDS
*
*
C1	VDD	GND	3.29608E-17	$X=14.0045 $Y=-19.2005
C2	!CONT_OUT	GND	9.06477E-17	$X=10.3695 $Y=-19.901
C3	!QPREV	GND	7.91597E-17	$X=8.5945 $Y=-19.6405
C4	CLK	GND	2.32928E-16	$X=2.09 $Y=-19.1405
C5	CONT_IN	GND	1.19448E-16	$X=9.9295 $Y=-21.0005
C6	GAFT	GND	4.25154E-17	$X=11.9195 $Y=-20.938
C7	GOUT	GND	9.16438E-17	$X=11.4095 $Y=-19.955
C8	GSEL	GND	7.78095E-17	$X=12.1195 $Y=-20.0855
C9	OUT	GND	9.61304E-17	$X=13.9395 $Y=-20.11
C10	Q	GND	1.54632E-16	$X=11.0825 $Y=-19.0005
C11	QNOT	GND	8.25916E-17	$X=8.0495 $Y=-19.8935
C12	QPREV	GND	9.64286E-17	$X=8.8195 $Y=-21.0425
C13	RST	GND	1.16654E-16	$X=4.2995 $Y=-19.353
C14	avS16	GND	4.31564E-17	$X=5.6595 $Y=-20.8605
C15	avC19	GND	1.26362E-16	$X=12.8995 $Y=-19.5925
C16	avC18	GND	2.19782E-16	$X=12.4495 $Y=-20.0405
C17	avC17	GND	1.33789E-16	$X=8.8395 $Y=-20.1805
C18	avC16	GND	5.36497E-17	$X=10.5995 $Y=-19.5155
C19	I41/avC12	GND	2.75449E-16	$X=0.998 $Y=-19.699
C20	I41/avC11	GND	1.00684E-16	$X=6.404 $Y=-19.585
C21	I41/avC10	GND	2.65533E-16	$X=5.4895 $Y=-20.06
C22	I41/avC9	GND	6.09931E-17	$X=2.6395 $Y=-19.4855
C23	I41/avC8	GND	1.60168E-16	$X=1.3945 $Y=-19.585
C24	avC19#5	GND	5.25038E-17	$X=13.6395 $Y=-19.4855
C25	avC18#4	GND	7.74056E-17	$X=13.1195 $Y=-19.5055
C26	GSEL#2	GND	8.36578E-17	$X=12.1195 $Y=-19.5435
C27	avC17#7	GND	4.63848E-17	$X=11.1195 $Y=-19.4805
C28	Q#3	GND	5.03299E-17	$X=7.6795 $Y=-19.4855
C29	I41/avC11#4	GND	7.76504E-17	$X=7.159 $Y=-19.5055
C30	I41/avC10#6	GND	5.89488E-17	$X=6.1595 $Y=-19.5005
C31	CLK#4	GND	8.55017E-17	$X=3.6395 $Y=-19.715
C32	I41/avC8#4	GND	6.85062E-17	$X=2.1195 $Y=-19.5055
C33	CLK#1	GND	8.82159E-17	$X=1.1195 $Y=-19.715
C34	avC19#6	GND	5.49804E-17	$X=13.6395 $Y=-20.5945
C35	avC18#6	GND	6.1412E-17	$X=13.1195 $Y=-20.5745
C36	GSEL#1	GND	6.54957E-17	$X=12.1195 $Y=-20.5825
C37	avC17#8	GND	5.73125E-17	$X=11.1195 $Y=-20.589
C38	avC16#4	GND	6.5645E-17	$X=10.5995 $Y=-20.5845
C39	QNOT#4	GND	7.075E-17	$X=9.46 $Y=-19.92
C40	Q#13	GND	6.73024E-17	$X=9.46 $Y=-20.4405
C41	QNOT#5	GND	4.02529E-17	$X=8.897 $Y=-19.92
C42	Q#14	GND	6.52198E-17	$X=8.772 $Y=-20.4405
C43	Q#5	GND	3.98067E-17	$X=7.6795 $Y=-20.5945
C44	I41/avC11#6	GND	5.47116E-17	$X=7.159 $Y=-20.5745
C45	I41/avC10#8	GND	5.42209E-17	$X=6.1595 $Y=-20.5695
C46	RST#1	GND	1.04858E-16	$X=5.1595 $Y=-20.49
C47	RST#3	GND	4.02248E-17	$X=4.6395 $Y=-20.6145
C48	CLK#6	GND	1.01323E-16	$X=3.6395 $Y=-20.4405
C49	I41/avC9#3	GND	6.36344E-17	$X=2.6395 $Y=-20.5945
C50	I41/avC8#6	GND	3.19062E-17	$X=2.1195 $Y=-20.4995
C51	CLK#3	GND	1.23781E-16	$X=1.1195 $Y=-20.4405
C52	avC19#4	GND	2.57276E-16	$X=13.5795 $Y=-20.04
C53	avC17#4	GND	1.22361E-16	$X=11.1195 $Y=-20.0295
C54	avC16#3	GND	2.03311E-16	$X=10.034 $Y=-20.11
C55	QNOT#1	GND	1.29947E-16	$X=8.3495 $Y=-19.9905
C56	Q#11	GND	1.07961E-16	$X=8.2695 $Y=-20.7505
C57	Q#4	GND	2.5711E-16	$X=7.6195 $Y=-20.04
C58	I41/avC11#2	GND	2.31709E-16	$X=6.4895 $Y=-20.04
C59	CLK#5	GND	3.10855E-16	$X=3.357 $Y=-19.1525
C60	I41/avC9#2	GND	2.65977E-16	$X=2.5795 $Y=-20.04
C61	I41/avC8#7	GND	3.57134E-16	$X=2.4615 $Y=-20.928
C62	I41/avC8#2	GND	2.34786E-16	$X=1.4795 $Y=-20.04
C63	CLK#2	GND	1.96653E-16	$X=1.1195 $Y=-19.1225
C64	VDD#51	GND	2.47137E-17	$X=14.632 $Y=-19.8855
C65	VDD#7	GND	6.93463E-16	$X=8.03 $Y=-19.316
C66	VDD#49	GND	1.90757E-17	$X=14.6345 $Y=-20.0905
C67	VDD#26	GND	4.41609E-17	$X=7.4195 $Y=-19.54
C68	VDD#17	GND	3.39918E-17	$X=4.9295 $Y=-19.5605
C69	VDD#48	GND	1.3567E-17	$X=14.6345 $Y=-20.0905
C70	VDD#39	GND	2.89006E-17	$X=13.3795 $Y=-19.54
C71	VDD#33	GND	4.52012E-17	$X=10.8595 $Y=-19.5005
C72	VDD#25	GND	2.20596E-17	$X=7.4195 $Y=-19.54
C73	VDD#16	GND	2.88444E-17	$X=5.8995 $Y=-19.54
C74	VDD#15	GND	3.38724E-17	$X=4.9295 $Y=-19.5605
C75	VDD#4	GND	3.86933E-17	$X=2.379 $Y=-19.54
C76	VDD#47	GND	8.10087E-17	$X=14.6345 $Y=-20.0905
C77	VDD#38	GND	6.0233E-17	$X=13.3795 $Y=-19.54
C78	GAFT#4	GND	3.64964E-17	$X=11.9195 $Y=-20.6025
C79	VDD#32	GND	7.03871E-17	$X=10.8595 $Y=-19.5005
C80	avC17#3	GND	2.37726E-16	$X=9.0705 $Y=-20.1805
C81	!QPREV#4	GND	7.03773E-17	$X=8.8295 $Y=-19.6405
C82	VDD#14	GND	1.25873E-17	$X=5.8995 $Y=-19.54
C83	VDD#13	GND	3.11262E-17	$X=4.9295 $Y=-19.5605
C84	VDD#3	GND	4.19454E-17	$X=2.379 $Y=-19.54
C85	VDD#44	GND	7.98243E-17	$X=14.6545 $Y=-20.0455
C86	VDD#37	GND	1.12216E-16	$X=13.3795 $Y=-19.54
C87	GAFT#3	GND	1.78245E-16	$X=11.9195 $Y=-20.5105
C88	Q#19	GND	2.2886E-16	$X=11.8595 $Y=-19.4205
C89	avC17#5	GND	4.85896E-16	$X=10.8685 $Y=-20.0205
C90	VDD#30	GND	2.59827E-16	$X=10.8595 $Y=-19.5105
C91	!CONT_OUT#4	GND	2.19845E-16	$X=10.3495 $Y=-19.5935
C92	!CONT_OUT#1	GND	2.62841E-16	$X=10.332 $Y=-20.4475
C93	Q#17	GND	1.40147E-16	$X=9.5495 $Y=-19.6215
C94	!QPREV#3	GND	2.03864E-16	$X=8.8295 $Y=-19.6405
C95	Q#12	GND	3.3102E-16	$X=8.6695 $Y=-21.0255
C96	VDD#23	GND	1.56258E-16	$X=7.4195 $Y=-19.54
C97	Q#10	GND	2.24567E-16	$X=6.9295 $Y=-20.549
C98	VDD#11	GND	7.64905E-17	$X=5.8995 $Y=-19.54
C99	VDD#10	GND	1.7186E-16	$X=4.9295 $Y=-19.5605
C100	Q#2	GND	4.12126E-16	$X=4.0505 $Y=-20.6715
C101	I41/avC12#5	GND	4.00804E-16	$X=2.9345 $Y=-19.74
C102	VDD#1	GND	2.79665E-16	$X=2.379 $Y=-19.54
C103	VDD#45	GND	3.10005E-16	$X=9.819 $Y=-11.229
C104	OUT#1	GND	1.17982E-16	$X=13.9045 $Y=-19.62
C105	avC18#3	GND	1.05177E-16	$X=12.3645 $Y=-19.5855
C106	GOUT#1	GND	1.2389E-16	$X=11.3795 $Y=-19.581
C107	QNOT#3	GND	6.65975E-17	$X=7.9395 $Y=-19.579
C108	Q#6	GND	1.28952E-16	$X=6.9345 $Y=-19.5925
C109	I41/avC10#5	GND	1.20198E-16	$X=3.884 $Y=-19.5975
C110	I41/avC12#4	GND	1.2352E-16	$X=3.3665 $Y=-19.5605
C111	I41/avC9#5	GND	1.93763E-16	$X=1.919 $Y=-19.593
C112	OUT#2	GND	8.62537E-17	$X=13.9045 $Y=-20.4955
C113	avC19#3	GND	1.32319E-16	$X=12.8995 $Y=-20.488
C114	avC18#2	GND	1.02673E-16	$X=12.3645 $Y=-20.4955
C115	GOUT#2	GND	1.3775E-16	$X=11.3795 $Y=-20.4565
C116	avC16#5	GND	1.37337E-16	$X=9.4595 $Y=-20.1805
C117	CONT_IN#1	GND	1.30031E-16	$X=9.5295 $Y=-20.7005
C118	QPREV#1	GND	1.18185E-16	$X=8.8195 $Y=-20.7035
C119	QNOT#2	GND	1.0092E-16	$X=7.9245 $Y=-20.474
C120	I41/avC11#3	GND	1.2714E-16	$X=6.404 $Y=-20.4955
C121	I41/avC10#4	GND	1.04669E-16	$X=5.4045 $Y=-20.49
C122	I41/avC8#8	GND	3.23505E-16	$X=4.3645 $Y=-20.6105
C123	I41/avC10#3	GND	2.37607E-16	$X=3.3945 $Y=-20.4255
C124	I41/avC12#8	GND	1.80969E-16	$X=2.9045 $Y=-20.4355
C125	I41/avC9#7	GND	1.85685E-16	$X=1.919 $Y=-20.488
C126	I41/avC8#3	GND	1.21008E-16	$X=1.3945 $Y=-20.4955
C127	VDD#8	GND	5.62964E-16	$X=4.899 $Y=-19.5605
C128	D#1	GND	1.76429E-16	$X=0.7845 $Y=-20.6005
C129	D#4	GND	1.30604E-16	$X=0.7845 $Y=-20.25
C130	I41/avC8#5	GND	1.07849E-16	$X=2.1195 $Y=-20.0395
C131	I41/avC9#4	GND	1.08847E-16	$X=1.9795 $Y=-20.0405
C132	RST#2	GND	1.71793E-16	$X=4.4695 $Y=-20.2005
C133	I41/avC10#2	GND	1.8718E-16	$X=3.8995 $Y=-20.006
C134	I41/avC10#7	GND	9.44808E-17	$X=6.1595 $Y=-20.0295
C135	I41/avC11#5	GND	1.0364E-16	$X=7.159 $Y=-20.0395
C136	Q#7	GND	1.03116E-16	$X=6.9395 $Y=-20.04
C137	avC16#2	GND	8.20602E-17	$X=10.5995 $Y=-20.0595
C138	Q#20	GND	4.51615E-16	$X=9.7075 $Y=-19.554
C139	Q#22	GND	2.72116E-16	$X=6.115 $Y=-21.0705
C140	avC18#5	GND	1.0188E-16	$X=13.1195 $Y=-20.0395
C141	avC19#2	GND	9.66398E-17	$X=12.9095 $Y=-20.04
*
*
.ENDS dff_PT_odd
*
